*SPEF "IEEE 1481-1998"
*DESIGN "iir_filter"
*DATE "Sat Nov  5 19:32:05 2022"
*VENDOR "Cadence Design Systems, Inc."
*PROGRAM "Innovus"
*VERSION "20.11-s130_1"
*DESIGN_FLOW "COUPLING C" "PIN_CAP NONE" "NAME_SCOPE LOCAL"
*DIVIDER /
*DELIMITER :
*BUS_DELIMITER []
*T_UNIT 1 NS
*C_UNIT 1 PF
*R_UNIT 1 OHM
*L_UNIT 1 HENRY

// MMMC spef file for corner 'my_rc'

*NAME_MAP

*1 FE_OFN9_my_dp_mpy4_inst_mult_23_n304
*2 FE_OFN8_my_dp_mpy4_inst_mult_23_n307
*3 FE_OFN7_my_dp_mpy3_inst_mult_23_n304
*4 FE_OFN6_my_dp_mpy3_inst_mult_23_n307
*5 FE_OFN5_my_dp_mpy2_inst_mult_23_n304
*6 FE_OFN4_my_dp_mpy2_inst_mult_23_n307
*7 FE_OFN3_my_dp_mpy1_inst_mult_23_n304
*8 FE_OFN2_my_dp_mpy1_inst_mult_23_n307
*9 FE_OFN1_my_dp_mpy0_inst_mult_23_n304
*10 FE_OFN0_my_dp_mpy0_inst_mult_23_n307
*11 FE_DBTN3_my_dp_r0_0
*12 FE_DBTN2_my_dp_r0_1
*13 FE_DBTN1_my_dp_r1_0
*14 FE_DBTN0_my_dp_r1_1
*15 CLK
*16 DIN[8]
*17 DIN[7]
*18 DIN[6]
*19 DIN[5]
*20 DIN[4]
*21 DIN[3]
*22 DIN[2]
*23 DIN[1]
*24 DIN[0]
*25 VIN
*26 RST_n
*27 B0[8]
*28 B0[7]
*29 B0[6]
*30 B0[5]
*31 B0[4]
*32 B0[3]
*33 B0[2]
*34 B0[1]
*35 B0[0]
*36 B1[8]
*37 B1[7]
*38 B1[6]
*39 B1[5]
*40 B1[4]
*41 B1[3]
*42 B1[2]
*43 B1[1]
*44 B1[0]
*45 B2[8]
*46 B2[7]
*47 B2[6]
*48 B2[5]
*49 B2[4]
*50 B2[3]
*51 B2[2]
*52 B2[1]
*53 B2[0]
*54 A1[8]
*55 A1[7]
*56 A1[6]
*57 A1[5]
*58 A1[4]
*59 A1[3]
*60 A1[2]
*61 A1[1]
*62 A1[0]
*63 A2[8]
*64 A2[7]
*65 A2[6]
*66 A2[5]
*67 A2[4]
*68 A2[3]
*69 A2[2]
*70 A2[1]
*71 A2[0]
*72 VOUT
*73 DOUT[8]
*74 DOUT[7]
*75 DOUT[6]
*76 DOUT[5]
*77 DOUT[4]
*78 DOUT[3]
*79 DOUT[2]
*80 DOUT[1]
*81 DOUT[0]
*82 logic_enable1
*83 logic_enable2
*84 logic_enable3
*85 my_cu_n3
*86 my_cu_n2
*87 my_dp_n9
*88 my_dp_n8
*89 my_dp_n7
*90 my_dp_n6
*91 my_dp_n5
*92 my_dp_n4
*93 my_dp_n3
*94 my_dp_n1
*95 my_dp_mpy_4__3_
*96 my_dp_mpy_4__4_
*97 my_dp_mpy_4__5_
*98 my_dp_mpy_4__6_
*99 my_dp_mpy_4__7_
*100 my_dp_mpy_4__8_
*101 my_dp_mpy_3__3_
*102 my_dp_mpy_3__4_
*103 my_dp_mpy_3__5_
*104 my_dp_mpy_3__6_
*105 my_dp_mpy_3__7_
*106 my_dp_mpy_3__8_
*107 my_dp_mpy_2__3_
*108 my_dp_mpy_2__4_
*109 my_dp_mpy_2__5_
*110 my_dp_mpy_2__6_
*111 my_dp_mpy_2__7_
*112 my_dp_mpy_2__8_
*113 my_dp_mpy_1__3_
*114 my_dp_mpy_1__4_
*115 my_dp_mpy_1__5_
*116 my_dp_mpy_1__6_
*117 my_dp_mpy_1__7_
*118 my_dp_mpy_1__8_
*119 my_dp_mpy_0__3_
*120 my_dp_mpy_0__4_
*121 my_dp_mpy_0__5_
*122 my_dp_mpy_0__6_
*123 my_dp_mpy_0__7_
*124 my_dp_mpy_0__8_
*125 my_dp_mpy0_inst_mult_23_n374
*126 my_dp_mpy0_inst_mult_23_n373
*127 my_dp_mpy0_inst_mult_23_n372
*128 my_dp_mpy0_inst_mult_23_n371
*129 my_dp_mpy0_inst_mult_23_n370
*130 my_dp_mpy0_inst_mult_23_n369
*131 my_dp_mpy0_inst_mult_23_n368
*132 my_dp_mpy0_inst_mult_23_n367
*133 my_dp_mpy0_inst_mult_23_n366
*134 my_dp_mpy0_inst_mult_23_n365
*135 my_dp_mpy0_inst_mult_23_n364
*136 my_dp_mpy0_inst_mult_23_n363
*137 my_dp_mpy0_inst_mult_23_n362
*138 my_dp_mpy0_inst_mult_23_n361
*139 my_dp_mpy0_inst_mult_23_n360
*140 my_dp_mpy0_inst_mult_23_n359
*141 my_dp_mpy0_inst_mult_23_n358
*142 my_dp_mpy0_inst_mult_23_n357
*143 my_dp_mpy0_inst_mult_23_n356
*144 my_dp_mpy0_inst_mult_23_n355
*145 my_dp_mpy0_inst_mult_23_n354
*146 my_dp_mpy0_inst_mult_23_n353
*147 my_dp_mpy0_inst_mult_23_n352
*148 my_dp_mpy0_inst_mult_23_n351
*149 my_dp_mpy0_inst_mult_23_n350
*150 my_dp_mpy0_inst_mult_23_n349
*151 my_dp_mpy0_inst_mult_23_n348
*152 my_dp_mpy0_inst_mult_23_n347
*153 my_dp_mpy0_inst_mult_23_n346
*154 my_dp_mpy0_inst_mult_23_n345
*155 my_dp_mpy0_inst_mult_23_n344
*156 my_dp_mpy0_inst_mult_23_n343
*157 my_dp_mpy0_inst_mult_23_n342
*158 my_dp_mpy0_inst_mult_23_n341
*159 my_dp_mpy0_inst_mult_23_n340
*160 my_dp_mpy0_inst_mult_23_n339
*161 my_dp_mpy0_inst_mult_23_n338
*162 my_dp_mpy0_inst_mult_23_n337
*163 my_dp_mpy0_inst_mult_23_n336
*164 my_dp_mpy0_inst_mult_23_n335
*165 my_dp_mpy0_inst_mult_23_n334
*166 my_dp_mpy0_inst_mult_23_n333
*167 my_dp_mpy0_inst_mult_23_n332
*168 my_dp_mpy0_inst_mult_23_n331
*169 my_dp_mpy0_inst_mult_23_n330
*170 my_dp_mpy0_inst_mult_23_n329
*171 my_dp_mpy0_inst_mult_23_n328
*172 my_dp_mpy0_inst_mult_23_n327
*173 my_dp_mpy0_inst_mult_23_n326
*174 my_dp_mpy0_inst_mult_23_n325
*175 my_dp_mpy0_inst_mult_23_n324
*176 my_dp_mpy0_inst_mult_23_n323
*177 my_dp_mpy0_inst_mult_23_n322
*178 my_dp_mpy0_inst_mult_23_n321
*179 my_dp_mpy0_inst_mult_23_n320
*180 my_dp_mpy0_inst_mult_23_n319
*181 my_dp_mpy0_inst_mult_23_n318
*182 my_dp_mpy0_inst_mult_23_n317
*183 my_dp_mpy0_inst_mult_23_n316
*184 my_dp_mpy0_inst_mult_23_n315
*185 my_dp_mpy0_inst_mult_23_n314
*186 my_dp_mpy0_inst_mult_23_n313
*187 my_dp_mpy0_inst_mult_23_n312
*188 my_dp_mpy0_inst_mult_23_n311
*189 my_dp_mpy0_inst_mult_23_n310
*190 my_dp_mpy0_inst_mult_23_n309
*191 my_dp_mpy0_inst_mult_23_n308
*192 my_dp_mpy0_inst_mult_23_n307
*193 my_dp_mpy0_inst_mult_23_n306
*194 my_dp_mpy0_inst_mult_23_n305
*195 my_dp_mpy0_inst_mult_23_n304
*196 my_dp_mpy0_inst_mult_23_n303
*197 my_dp_mpy0_inst_mult_23_n302
*198 my_dp_mpy0_inst_mult_23_n301
*199 my_dp_mpy0_inst_mult_23_n298
*200 my_dp_mpy0_inst_mult_23_n297
*201 my_dp_mpy0_inst_mult_23_n296
*202 my_dp_mpy0_inst_mult_23_n295
*203 my_dp_mpy0_inst_mult_23_n294
*204 my_dp_mpy0_inst_mult_23_n293
*205 my_dp_mpy0_inst_mult_23_n292
*206 my_dp_mpy0_inst_mult_23_n291
*207 my_dp_mpy0_inst_mult_23_n290
*208 my_dp_mpy0_inst_mult_23_n289
*209 my_dp_mpy0_inst_mult_23_n288
*210 my_dp_mpy0_inst_mult_23_n287
*211 my_dp_mpy0_inst_mult_23_n286
*212 my_dp_mpy0_inst_mult_23_n285
*213 my_dp_mpy0_inst_mult_23_n284
*214 my_dp_mpy0_inst_mult_23_n283
*215 my_dp_mpy0_inst_mult_23_n282
*216 my_dp_mpy0_inst_mult_23_n281
*217 my_dp_mpy0_inst_mult_23_n280
*218 my_dp_mpy0_inst_mult_23_n279
*219 my_dp_mpy0_inst_mult_23_n278
*220 my_dp_mpy0_inst_mult_23_n277
*221 my_dp_mpy0_inst_mult_23_n276
*222 my_dp_mpy0_inst_mult_23_n275
*223 my_dp_mpy0_inst_mult_23_n143
*224 my_dp_mpy0_inst_mult_23_n142
*225 my_dp_mpy0_inst_mult_23_n141
*226 my_dp_mpy0_inst_mult_23_n140
*227 my_dp_mpy0_inst_mult_23_n139
*228 my_dp_mpy0_inst_mult_23_n138
*229 my_dp_mpy0_inst_mult_23_n135
*230 my_dp_mpy0_inst_mult_23_n134
*231 my_dp_mpy0_inst_mult_23_n133
*232 my_dp_mpy0_inst_mult_23_n132
*233 my_dp_mpy0_inst_mult_23_n131
*234 my_dp_mpy0_inst_mult_23_n130
*235 my_dp_mpy0_inst_mult_23_n129
*236 my_dp_mpy0_inst_mult_23_n128
*237 my_dp_mpy0_inst_mult_23_n126
*238 my_dp_mpy0_inst_mult_23_n125
*239 my_dp_mpy0_inst_mult_23_n124
*240 my_dp_mpy0_inst_mult_23_n123
*241 my_dp_mpy0_inst_mult_23_n122
*242 my_dp_mpy0_inst_mult_23_n121
*243 my_dp_mpy0_inst_mult_23_n120
*244 my_dp_mpy0_inst_mult_23_n119
*245 my_dp_mpy0_inst_mult_23_n118
*246 my_dp_mpy0_inst_mult_23_n116
*247 my_dp_mpy0_inst_mult_23_n115
*248 my_dp_mpy0_inst_mult_23_n114
*249 my_dp_mpy0_inst_mult_23_n113
*250 my_dp_mpy0_inst_mult_23_n112
*251 my_dp_mpy0_inst_mult_23_n111
*252 my_dp_mpy0_inst_mult_23_n110
*253 my_dp_mpy0_inst_mult_23_n109
*254 my_dp_mpy0_inst_mult_23_n108
*255 my_dp_mpy0_inst_mult_23_n106
*256 my_dp_mpy0_inst_mult_23_n104
*257 my_dp_mpy0_inst_mult_23_n103
*258 my_dp_mpy0_inst_mult_23_n102
*259 my_dp_mpy0_inst_mult_23_n98
*260 my_dp_mpy0_inst_mult_23_n97
*261 my_dp_mpy0_inst_mult_23_n81
*262 my_dp_mpy0_inst_mult_23_n80
*263 my_dp_mpy0_inst_mult_23_n79
*264 my_dp_mpy0_inst_mult_23_n78
*265 my_dp_mpy0_inst_mult_23_n77
*266 my_dp_mpy0_inst_mult_23_n76
*267 my_dp_mpy0_inst_mult_23_n75
*268 my_dp_mpy0_inst_mult_23_n74
*269 my_dp_mpy0_inst_mult_23_n73
*270 my_dp_mpy0_inst_mult_23_n72
*271 my_dp_mpy0_inst_mult_23_n71
*272 my_dp_mpy0_inst_mult_23_n70
*273 my_dp_mpy0_inst_mult_23_n69
*274 my_dp_mpy0_inst_mult_23_n68
*275 my_dp_mpy0_inst_mult_23_n67
*276 my_dp_mpy0_inst_mult_23_n66
*277 my_dp_mpy0_inst_mult_23_n65
*278 my_dp_mpy0_inst_mult_23_n64
*279 my_dp_mpy0_inst_mult_23_n63
*280 my_dp_mpy0_inst_mult_23_n62
*281 my_dp_mpy0_inst_mult_23_n61
*282 my_dp_mpy0_inst_mult_23_n60
*283 my_dp_mpy0_inst_mult_23_n59
*284 my_dp_mpy0_inst_mult_23_n58
*285 my_dp_mpy0_inst_mult_23_n57
*286 my_dp_mpy0_inst_mult_23_n56
*287 my_dp_mpy0_inst_mult_23_n55
*288 my_dp_mpy0_inst_mult_23_n54
*289 my_dp_mpy0_inst_mult_23_n53
*290 my_dp_mpy0_inst_mult_23_n52
*291 my_dp_mpy0_inst_mult_23_n51
*292 my_dp_mpy0_inst_mult_23_n50
*293 my_dp_mpy0_inst_mult_23_n49
*294 my_dp_mpy0_inst_mult_23_n47
*295 my_dp_mpy0_inst_mult_23_n46
*296 my_dp_mpy0_inst_mult_23_n45
*297 my_dp_mpy0_inst_mult_23_n44
*298 my_dp_mpy0_inst_mult_23_n43
*299 my_dp_mpy0_inst_mult_23_n42
*300 my_dp_mpy0_inst_mult_23_n41
*301 my_dp_mpy0_inst_mult_23_n40
*302 my_dp_mpy0_inst_mult_23_n39
*303 my_dp_mpy0_inst_mult_23_n38
*304 my_dp_mpy0_inst_mult_23_n37
*305 my_dp_mpy0_inst_mult_23_n36
*306 my_dp_mpy0_inst_mult_23_n35
*307 my_dp_mpy0_inst_mult_23_n33
*308 my_dp_mpy0_inst_mult_23_n32
*309 my_dp_mpy0_inst_mult_23_n31
*310 my_dp_mpy0_inst_mult_23_n30
*311 my_dp_mpy0_inst_mult_23_n29
*312 my_dp_mpy0_inst_mult_23_n28
*313 my_dp_mpy0_inst_mult_23_n27
*314 my_dp_mpy0_inst_mult_23_n26
*315 my_dp_mpy0_inst_mult_23_n25
*316 my_dp_mpy0_inst_mult_23_n23
*317 my_dp_mpy0_inst_mult_23_n22
*318 my_dp_mpy0_inst_mult_23_n21
*319 my_dp_mpy0_inst_mult_23_n20
*320 my_dp_mpy0_inst_mult_23_n19
*321 my_dp_mpy0_inst_mult_23_n8
*322 my_dp_mpy0_inst_mult_23_n7
*323 my_dp_mpy0_inst_mult_23_n6
*324 my_dp_mpy0_inst_mult_23_n5
*325 my_dp_mpy0_inst_mult_23_n4
*326 my_dp_mpy0_inst_mult_23_n3
*327 my_dp_mpy1_inst_mult_23_n374
*328 my_dp_mpy1_inst_mult_23_n373
*329 my_dp_mpy1_inst_mult_23_n372
*330 my_dp_mpy1_inst_mult_23_n371
*331 my_dp_mpy1_inst_mult_23_n370
*332 my_dp_mpy1_inst_mult_23_n369
*333 my_dp_mpy1_inst_mult_23_n368
*334 my_dp_mpy1_inst_mult_23_n367
*335 my_dp_mpy1_inst_mult_23_n366
*336 my_dp_mpy1_inst_mult_23_n365
*337 my_dp_mpy1_inst_mult_23_n364
*338 my_dp_mpy1_inst_mult_23_n363
*339 my_dp_mpy1_inst_mult_23_n362
*340 my_dp_mpy1_inst_mult_23_n361
*341 my_dp_mpy1_inst_mult_23_n360
*342 my_dp_mpy1_inst_mult_23_n359
*343 my_dp_mpy1_inst_mult_23_n358
*344 my_dp_mpy1_inst_mult_23_n357
*345 my_dp_mpy1_inst_mult_23_n356
*346 my_dp_mpy1_inst_mult_23_n355
*347 my_dp_mpy1_inst_mult_23_n354
*348 my_dp_mpy1_inst_mult_23_n353
*349 my_dp_mpy1_inst_mult_23_n352
*350 my_dp_mpy1_inst_mult_23_n351
*351 my_dp_mpy1_inst_mult_23_n350
*352 my_dp_mpy1_inst_mult_23_n349
*353 my_dp_mpy1_inst_mult_23_n348
*354 my_dp_mpy1_inst_mult_23_n347
*355 my_dp_mpy1_inst_mult_23_n346
*356 my_dp_mpy1_inst_mult_23_n345
*357 my_dp_mpy1_inst_mult_23_n344
*358 my_dp_mpy1_inst_mult_23_n343
*359 my_dp_mpy1_inst_mult_23_n342
*360 my_dp_mpy1_inst_mult_23_n341
*361 my_dp_mpy1_inst_mult_23_n340
*362 my_dp_mpy1_inst_mult_23_n339
*363 my_dp_mpy1_inst_mult_23_n338
*364 my_dp_mpy1_inst_mult_23_n337
*365 my_dp_mpy1_inst_mult_23_n336
*366 my_dp_mpy1_inst_mult_23_n335
*367 my_dp_mpy1_inst_mult_23_n334
*368 my_dp_mpy1_inst_mult_23_n333
*369 my_dp_mpy1_inst_mult_23_n332
*370 my_dp_mpy1_inst_mult_23_n331
*371 my_dp_mpy1_inst_mult_23_n330
*372 my_dp_mpy1_inst_mult_23_n329
*373 my_dp_mpy1_inst_mult_23_n328
*374 my_dp_mpy1_inst_mult_23_n327
*375 my_dp_mpy1_inst_mult_23_n326
*376 my_dp_mpy1_inst_mult_23_n325
*377 my_dp_mpy1_inst_mult_23_n324
*378 my_dp_mpy1_inst_mult_23_n323
*379 my_dp_mpy1_inst_mult_23_n322
*380 my_dp_mpy1_inst_mult_23_n321
*381 my_dp_mpy1_inst_mult_23_n320
*382 my_dp_mpy1_inst_mult_23_n319
*383 my_dp_mpy1_inst_mult_23_n318
*384 my_dp_mpy1_inst_mult_23_n317
*385 my_dp_mpy1_inst_mult_23_n316
*386 my_dp_mpy1_inst_mult_23_n315
*387 my_dp_mpy1_inst_mult_23_n314
*388 my_dp_mpy1_inst_mult_23_n313
*389 my_dp_mpy1_inst_mult_23_n312
*390 my_dp_mpy1_inst_mult_23_n311
*391 my_dp_mpy1_inst_mult_23_n310
*392 my_dp_mpy1_inst_mult_23_n309
*393 my_dp_mpy1_inst_mult_23_n308
*394 my_dp_mpy1_inst_mult_23_n307
*395 my_dp_mpy1_inst_mult_23_n306
*396 my_dp_mpy1_inst_mult_23_n305
*397 my_dp_mpy1_inst_mult_23_n304
*398 my_dp_mpy1_inst_mult_23_n303
*399 my_dp_mpy1_inst_mult_23_n302
*400 my_dp_mpy1_inst_mult_23_n301
*401 my_dp_mpy1_inst_mult_23_n298
*402 my_dp_mpy1_inst_mult_23_n297
*403 my_dp_mpy1_inst_mult_23_n296
*404 my_dp_mpy1_inst_mult_23_n295
*405 my_dp_mpy1_inst_mult_23_n294
*406 my_dp_mpy1_inst_mult_23_n293
*407 my_dp_mpy1_inst_mult_23_n290
*408 my_dp_mpy1_inst_mult_23_n289
*409 my_dp_mpy1_inst_mult_23_n288
*410 my_dp_mpy1_inst_mult_23_n287
*411 my_dp_mpy1_inst_mult_23_n286
*412 my_dp_mpy1_inst_mult_23_n285
*413 my_dp_mpy1_inst_mult_23_n284
*414 my_dp_mpy1_inst_mult_23_n283
*415 my_dp_mpy1_inst_mult_23_n282
*416 my_dp_mpy1_inst_mult_23_n281
*417 my_dp_mpy1_inst_mult_23_n280
*418 my_dp_mpy1_inst_mult_23_n279
*419 my_dp_mpy1_inst_mult_23_n278
*420 my_dp_mpy1_inst_mult_23_n277
*421 my_dp_mpy1_inst_mult_23_n276
*422 my_dp_mpy1_inst_mult_23_n275
*423 my_dp_mpy1_inst_mult_23_n143
*424 my_dp_mpy1_inst_mult_23_n142
*425 my_dp_mpy1_inst_mult_23_n141
*426 my_dp_mpy1_inst_mult_23_n140
*427 my_dp_mpy1_inst_mult_23_n139
*428 my_dp_mpy1_inst_mult_23_n138
*429 my_dp_mpy1_inst_mult_23_n135
*430 my_dp_mpy1_inst_mult_23_n134
*431 my_dp_mpy1_inst_mult_23_n133
*432 my_dp_mpy1_inst_mult_23_n132
*433 my_dp_mpy1_inst_mult_23_n131
*434 my_dp_mpy1_inst_mult_23_n130
*435 my_dp_mpy1_inst_mult_23_n129
*436 my_dp_mpy1_inst_mult_23_n128
*437 my_dp_mpy1_inst_mult_23_n126
*438 my_dp_mpy1_inst_mult_23_n125
*439 my_dp_mpy1_inst_mult_23_n124
*440 my_dp_mpy1_inst_mult_23_n123
*441 my_dp_mpy1_inst_mult_23_n122
*442 my_dp_mpy1_inst_mult_23_n121
*443 my_dp_mpy1_inst_mult_23_n120
*444 my_dp_mpy1_inst_mult_23_n119
*445 my_dp_mpy1_inst_mult_23_n118
*446 my_dp_mpy1_inst_mult_23_n116
*447 my_dp_mpy1_inst_mult_23_n115
*448 my_dp_mpy1_inst_mult_23_n114
*449 my_dp_mpy1_inst_mult_23_n113
*450 my_dp_mpy1_inst_mult_23_n112
*451 my_dp_mpy1_inst_mult_23_n111
*452 my_dp_mpy1_inst_mult_23_n110
*453 my_dp_mpy1_inst_mult_23_n109
*454 my_dp_mpy1_inst_mult_23_n108
*455 my_dp_mpy1_inst_mult_23_n106
*456 my_dp_mpy1_inst_mult_23_n104
*457 my_dp_mpy1_inst_mult_23_n103
*458 my_dp_mpy1_inst_mult_23_n102
*459 my_dp_mpy1_inst_mult_23_n98
*460 my_dp_mpy1_inst_mult_23_n97
*461 my_dp_mpy1_inst_mult_23_n81
*462 my_dp_mpy1_inst_mult_23_n80
*463 my_dp_mpy1_inst_mult_23_n79
*464 my_dp_mpy1_inst_mult_23_n78
*465 my_dp_mpy1_inst_mult_23_n77
*466 my_dp_mpy1_inst_mult_23_n76
*467 my_dp_mpy1_inst_mult_23_n75
*468 my_dp_mpy1_inst_mult_23_n74
*469 my_dp_mpy1_inst_mult_23_n73
*470 my_dp_mpy1_inst_mult_23_n72
*471 my_dp_mpy1_inst_mult_23_n71
*472 my_dp_mpy1_inst_mult_23_n70
*473 my_dp_mpy1_inst_mult_23_n69
*474 my_dp_mpy1_inst_mult_23_n68
*475 my_dp_mpy1_inst_mult_23_n67
*476 my_dp_mpy1_inst_mult_23_n66
*477 my_dp_mpy1_inst_mult_23_n65
*478 my_dp_mpy1_inst_mult_23_n64
*479 my_dp_mpy1_inst_mult_23_n63
*480 my_dp_mpy1_inst_mult_23_n62
*481 my_dp_mpy1_inst_mult_23_n61
*482 my_dp_mpy1_inst_mult_23_n60
*483 my_dp_mpy1_inst_mult_23_n59
*484 my_dp_mpy1_inst_mult_23_n58
*485 my_dp_mpy1_inst_mult_23_n57
*486 my_dp_mpy1_inst_mult_23_n56
*487 my_dp_mpy1_inst_mult_23_n55
*488 my_dp_mpy1_inst_mult_23_n54
*489 my_dp_mpy1_inst_mult_23_n53
*490 my_dp_mpy1_inst_mult_23_n52
*491 my_dp_mpy1_inst_mult_23_n51
*492 my_dp_mpy1_inst_mult_23_n50
*493 my_dp_mpy1_inst_mult_23_n49
*494 my_dp_mpy1_inst_mult_23_n47
*495 my_dp_mpy1_inst_mult_23_n46
*496 my_dp_mpy1_inst_mult_23_n45
*497 my_dp_mpy1_inst_mult_23_n44
*498 my_dp_mpy1_inst_mult_23_n43
*499 my_dp_mpy1_inst_mult_23_n42
*500 my_dp_mpy1_inst_mult_23_n41
*501 my_dp_mpy1_inst_mult_23_n40
*502 my_dp_mpy1_inst_mult_23_n39
*503 my_dp_mpy1_inst_mult_23_n38
*504 my_dp_mpy1_inst_mult_23_n37
*505 my_dp_mpy1_inst_mult_23_n36
*506 my_dp_mpy1_inst_mult_23_n35
*507 my_dp_mpy1_inst_mult_23_n33
*508 my_dp_mpy1_inst_mult_23_n32
*509 my_dp_mpy1_inst_mult_23_n31
*510 my_dp_mpy1_inst_mult_23_n30
*511 my_dp_mpy1_inst_mult_23_n29
*512 my_dp_mpy1_inst_mult_23_n28
*513 my_dp_mpy1_inst_mult_23_n27
*514 my_dp_mpy1_inst_mult_23_n26
*515 my_dp_mpy1_inst_mult_23_n25
*516 my_dp_mpy1_inst_mult_23_n23
*517 my_dp_mpy1_inst_mult_23_n22
*518 my_dp_mpy1_inst_mult_23_n21
*519 my_dp_mpy1_inst_mult_23_n20
*520 my_dp_mpy1_inst_mult_23_n19
*521 my_dp_mpy1_inst_mult_23_n8
*522 my_dp_mpy1_inst_mult_23_n7
*523 my_dp_mpy1_inst_mult_23_n6
*524 my_dp_mpy1_inst_mult_23_n5
*525 my_dp_mpy1_inst_mult_23_n4
*526 my_dp_mpy1_inst_mult_23_n3
*527 my_dp_mpy2_inst_mult_23_n374
*528 my_dp_mpy2_inst_mult_23_n373
*529 my_dp_mpy2_inst_mult_23_n372
*530 my_dp_mpy2_inst_mult_23_n371
*531 my_dp_mpy2_inst_mult_23_n370
*532 my_dp_mpy2_inst_mult_23_n369
*533 my_dp_mpy2_inst_mult_23_n368
*534 my_dp_mpy2_inst_mult_23_n367
*535 my_dp_mpy2_inst_mult_23_n366
*536 my_dp_mpy2_inst_mult_23_n365
*537 my_dp_mpy2_inst_mult_23_n364
*538 my_dp_mpy2_inst_mult_23_n363
*539 my_dp_mpy2_inst_mult_23_n362
*540 my_dp_mpy2_inst_mult_23_n361
*541 my_dp_mpy2_inst_mult_23_n360
*542 my_dp_mpy2_inst_mult_23_n359
*543 my_dp_mpy2_inst_mult_23_n358
*544 my_dp_mpy2_inst_mult_23_n357
*545 my_dp_mpy2_inst_mult_23_n356
*546 my_dp_mpy2_inst_mult_23_n355
*547 my_dp_mpy2_inst_mult_23_n354
*548 my_dp_mpy2_inst_mult_23_n353
*549 my_dp_mpy2_inst_mult_23_n352
*550 my_dp_mpy2_inst_mult_23_n351
*551 my_dp_mpy2_inst_mult_23_n350
*552 my_dp_mpy2_inst_mult_23_n349
*553 my_dp_mpy2_inst_mult_23_n348
*554 my_dp_mpy2_inst_mult_23_n347
*555 my_dp_mpy2_inst_mult_23_n346
*556 my_dp_mpy2_inst_mult_23_n345
*557 my_dp_mpy2_inst_mult_23_n344
*558 my_dp_mpy2_inst_mult_23_n343
*559 my_dp_mpy2_inst_mult_23_n342
*560 my_dp_mpy2_inst_mult_23_n341
*561 my_dp_mpy2_inst_mult_23_n340
*562 my_dp_mpy2_inst_mult_23_n339
*563 my_dp_mpy2_inst_mult_23_n338
*564 my_dp_mpy2_inst_mult_23_n337
*565 my_dp_mpy2_inst_mult_23_n336
*566 my_dp_mpy2_inst_mult_23_n335
*567 my_dp_mpy2_inst_mult_23_n334
*568 my_dp_mpy2_inst_mult_23_n333
*569 my_dp_mpy2_inst_mult_23_n332
*570 my_dp_mpy2_inst_mult_23_n331
*571 my_dp_mpy2_inst_mult_23_n330
*572 my_dp_mpy2_inst_mult_23_n329
*573 my_dp_mpy2_inst_mult_23_n328
*574 my_dp_mpy2_inst_mult_23_n327
*575 my_dp_mpy2_inst_mult_23_n326
*576 my_dp_mpy2_inst_mult_23_n325
*577 my_dp_mpy2_inst_mult_23_n324
*578 my_dp_mpy2_inst_mult_23_n323
*579 my_dp_mpy2_inst_mult_23_n322
*580 my_dp_mpy2_inst_mult_23_n321
*581 my_dp_mpy2_inst_mult_23_n320
*582 my_dp_mpy2_inst_mult_23_n319
*583 my_dp_mpy2_inst_mult_23_n318
*584 my_dp_mpy2_inst_mult_23_n317
*585 my_dp_mpy2_inst_mult_23_n316
*586 my_dp_mpy2_inst_mult_23_n315
*587 my_dp_mpy2_inst_mult_23_n314
*588 my_dp_mpy2_inst_mult_23_n313
*589 my_dp_mpy2_inst_mult_23_n312
*590 my_dp_mpy2_inst_mult_23_n311
*591 my_dp_mpy2_inst_mult_23_n310
*592 my_dp_mpy2_inst_mult_23_n309
*593 my_dp_mpy2_inst_mult_23_n308
*594 my_dp_mpy2_inst_mult_23_n307
*595 my_dp_mpy2_inst_mult_23_n306
*596 my_dp_mpy2_inst_mult_23_n305
*597 my_dp_mpy2_inst_mult_23_n304
*598 my_dp_mpy2_inst_mult_23_n303
*599 my_dp_mpy2_inst_mult_23_n302
*600 my_dp_mpy2_inst_mult_23_n301
*601 my_dp_mpy2_inst_mult_23_n298
*602 my_dp_mpy2_inst_mult_23_n297
*603 my_dp_mpy2_inst_mult_23_n296
*604 my_dp_mpy2_inst_mult_23_n295
*605 my_dp_mpy2_inst_mult_23_n294
*606 my_dp_mpy2_inst_mult_23_n293
*607 my_dp_mpy2_inst_mult_23_n290
*608 my_dp_mpy2_inst_mult_23_n289
*609 my_dp_mpy2_inst_mult_23_n288
*610 my_dp_mpy2_inst_mult_23_n287
*611 my_dp_mpy2_inst_mult_23_n286
*612 my_dp_mpy2_inst_mult_23_n285
*613 my_dp_mpy2_inst_mult_23_n284
*614 my_dp_mpy2_inst_mult_23_n283
*615 my_dp_mpy2_inst_mult_23_n282
*616 my_dp_mpy2_inst_mult_23_n281
*617 my_dp_mpy2_inst_mult_23_n280
*618 my_dp_mpy2_inst_mult_23_n279
*619 my_dp_mpy2_inst_mult_23_n278
*620 my_dp_mpy2_inst_mult_23_n277
*621 my_dp_mpy2_inst_mult_23_n276
*622 my_dp_mpy2_inst_mult_23_n275
*623 my_dp_mpy2_inst_mult_23_n143
*624 my_dp_mpy2_inst_mult_23_n142
*625 my_dp_mpy2_inst_mult_23_n141
*626 my_dp_mpy2_inst_mult_23_n140
*627 my_dp_mpy2_inst_mult_23_n139
*628 my_dp_mpy2_inst_mult_23_n138
*629 my_dp_mpy2_inst_mult_23_n135
*630 my_dp_mpy2_inst_mult_23_n134
*631 my_dp_mpy2_inst_mult_23_n133
*632 my_dp_mpy2_inst_mult_23_n132
*633 my_dp_mpy2_inst_mult_23_n131
*634 my_dp_mpy2_inst_mult_23_n130
*635 my_dp_mpy2_inst_mult_23_n129
*636 my_dp_mpy2_inst_mult_23_n128
*637 my_dp_mpy2_inst_mult_23_n126
*638 my_dp_mpy2_inst_mult_23_n125
*639 my_dp_mpy2_inst_mult_23_n124
*640 my_dp_mpy2_inst_mult_23_n123
*641 my_dp_mpy2_inst_mult_23_n122
*642 my_dp_mpy2_inst_mult_23_n121
*643 my_dp_mpy2_inst_mult_23_n120
*644 my_dp_mpy2_inst_mult_23_n119
*645 my_dp_mpy2_inst_mult_23_n118
*646 my_dp_mpy2_inst_mult_23_n116
*647 my_dp_mpy2_inst_mult_23_n115
*648 my_dp_mpy2_inst_mult_23_n114
*649 my_dp_mpy2_inst_mult_23_n113
*650 my_dp_mpy2_inst_mult_23_n112
*651 my_dp_mpy2_inst_mult_23_n111
*652 my_dp_mpy2_inst_mult_23_n110
*653 my_dp_mpy2_inst_mult_23_n109
*654 my_dp_mpy2_inst_mult_23_n108
*655 my_dp_mpy2_inst_mult_23_n106
*656 my_dp_mpy2_inst_mult_23_n104
*657 my_dp_mpy2_inst_mult_23_n103
*658 my_dp_mpy2_inst_mult_23_n102
*659 my_dp_mpy2_inst_mult_23_n98
*660 my_dp_mpy2_inst_mult_23_n97
*661 my_dp_mpy2_inst_mult_23_n81
*662 my_dp_mpy2_inst_mult_23_n80
*663 my_dp_mpy2_inst_mult_23_n79
*664 my_dp_mpy2_inst_mult_23_n78
*665 my_dp_mpy2_inst_mult_23_n77
*666 my_dp_mpy2_inst_mult_23_n76
*667 my_dp_mpy2_inst_mult_23_n75
*668 my_dp_mpy2_inst_mult_23_n74
*669 my_dp_mpy2_inst_mult_23_n73
*670 my_dp_mpy2_inst_mult_23_n72
*671 my_dp_mpy2_inst_mult_23_n71
*672 my_dp_mpy2_inst_mult_23_n70
*673 my_dp_mpy2_inst_mult_23_n69
*674 my_dp_mpy2_inst_mult_23_n68
*675 my_dp_mpy2_inst_mult_23_n67
*676 my_dp_mpy2_inst_mult_23_n66
*677 my_dp_mpy2_inst_mult_23_n65
*678 my_dp_mpy2_inst_mult_23_n64
*679 my_dp_mpy2_inst_mult_23_n63
*680 my_dp_mpy2_inst_mult_23_n62
*681 my_dp_mpy2_inst_mult_23_n61
*682 my_dp_mpy2_inst_mult_23_n60
*683 my_dp_mpy2_inst_mult_23_n59
*684 my_dp_mpy2_inst_mult_23_n58
*685 my_dp_mpy2_inst_mult_23_n57
*686 my_dp_mpy2_inst_mult_23_n56
*687 my_dp_mpy2_inst_mult_23_n55
*688 my_dp_mpy2_inst_mult_23_n54
*689 my_dp_mpy2_inst_mult_23_n53
*690 my_dp_mpy2_inst_mult_23_n52
*691 my_dp_mpy2_inst_mult_23_n51
*692 my_dp_mpy2_inst_mult_23_n50
*693 my_dp_mpy2_inst_mult_23_n49
*694 my_dp_mpy2_inst_mult_23_n47
*695 my_dp_mpy2_inst_mult_23_n46
*696 my_dp_mpy2_inst_mult_23_n45
*697 my_dp_mpy2_inst_mult_23_n44
*698 my_dp_mpy2_inst_mult_23_n43
*699 my_dp_mpy2_inst_mult_23_n42
*700 my_dp_mpy2_inst_mult_23_n41
*701 my_dp_mpy2_inst_mult_23_n40
*702 my_dp_mpy2_inst_mult_23_n39
*703 my_dp_mpy2_inst_mult_23_n38
*704 my_dp_mpy2_inst_mult_23_n37
*705 my_dp_mpy2_inst_mult_23_n36
*706 my_dp_mpy2_inst_mult_23_n35
*707 my_dp_mpy2_inst_mult_23_n33
*708 my_dp_mpy2_inst_mult_23_n32
*709 my_dp_mpy2_inst_mult_23_n31
*710 my_dp_mpy2_inst_mult_23_n30
*711 my_dp_mpy2_inst_mult_23_n29
*712 my_dp_mpy2_inst_mult_23_n28
*713 my_dp_mpy2_inst_mult_23_n27
*714 my_dp_mpy2_inst_mult_23_n26
*715 my_dp_mpy2_inst_mult_23_n25
*716 my_dp_mpy2_inst_mult_23_n23
*717 my_dp_mpy2_inst_mult_23_n22
*718 my_dp_mpy2_inst_mult_23_n21
*719 my_dp_mpy2_inst_mult_23_n20
*720 my_dp_mpy2_inst_mult_23_n19
*721 my_dp_mpy2_inst_mult_23_n8
*722 my_dp_mpy2_inst_mult_23_n7
*723 my_dp_mpy2_inst_mult_23_n6
*724 my_dp_mpy2_inst_mult_23_n5
*725 my_dp_mpy2_inst_mult_23_n4
*726 my_dp_mpy2_inst_mult_23_n3
*727 my_dp_mpy3_inst_mult_23_n374
*728 my_dp_mpy3_inst_mult_23_n373
*729 my_dp_mpy3_inst_mult_23_n372
*730 my_dp_mpy3_inst_mult_23_n371
*731 my_dp_mpy3_inst_mult_23_n370
*732 my_dp_mpy3_inst_mult_23_n369
*733 my_dp_mpy3_inst_mult_23_n368
*734 my_dp_mpy3_inst_mult_23_n367
*735 my_dp_mpy3_inst_mult_23_n366
*736 my_dp_mpy3_inst_mult_23_n365
*737 my_dp_mpy3_inst_mult_23_n364
*738 my_dp_mpy3_inst_mult_23_n363
*739 my_dp_mpy3_inst_mult_23_n362
*740 my_dp_mpy3_inst_mult_23_n361
*741 my_dp_mpy3_inst_mult_23_n360
*742 my_dp_mpy3_inst_mult_23_n359
*743 my_dp_mpy3_inst_mult_23_n358
*744 my_dp_mpy3_inst_mult_23_n357
*745 my_dp_mpy3_inst_mult_23_n356
*746 my_dp_mpy3_inst_mult_23_n355
*747 my_dp_mpy3_inst_mult_23_n354
*748 my_dp_mpy3_inst_mult_23_n353
*749 my_dp_mpy3_inst_mult_23_n352
*750 my_dp_mpy3_inst_mult_23_n351
*751 my_dp_mpy3_inst_mult_23_n350
*752 my_dp_mpy3_inst_mult_23_n349
*753 my_dp_mpy3_inst_mult_23_n348
*754 my_dp_mpy3_inst_mult_23_n347
*755 my_dp_mpy3_inst_mult_23_n346
*756 my_dp_mpy3_inst_mult_23_n345
*757 my_dp_mpy3_inst_mult_23_n344
*758 my_dp_mpy3_inst_mult_23_n343
*759 my_dp_mpy3_inst_mult_23_n342
*760 my_dp_mpy3_inst_mult_23_n341
*761 my_dp_mpy3_inst_mult_23_n340
*762 my_dp_mpy3_inst_mult_23_n339
*763 my_dp_mpy3_inst_mult_23_n338
*764 my_dp_mpy3_inst_mult_23_n337
*765 my_dp_mpy3_inst_mult_23_n336
*766 my_dp_mpy3_inst_mult_23_n335
*767 my_dp_mpy3_inst_mult_23_n334
*768 my_dp_mpy3_inst_mult_23_n333
*769 my_dp_mpy3_inst_mult_23_n332
*770 my_dp_mpy3_inst_mult_23_n331
*771 my_dp_mpy3_inst_mult_23_n330
*772 my_dp_mpy3_inst_mult_23_n329
*773 my_dp_mpy3_inst_mult_23_n328
*774 my_dp_mpy3_inst_mult_23_n327
*775 my_dp_mpy3_inst_mult_23_n326
*776 my_dp_mpy3_inst_mult_23_n325
*777 my_dp_mpy3_inst_mult_23_n324
*778 my_dp_mpy3_inst_mult_23_n323
*779 my_dp_mpy3_inst_mult_23_n322
*780 my_dp_mpy3_inst_mult_23_n321
*781 my_dp_mpy3_inst_mult_23_n320
*782 my_dp_mpy3_inst_mult_23_n319
*783 my_dp_mpy3_inst_mult_23_n318
*784 my_dp_mpy3_inst_mult_23_n317
*785 my_dp_mpy3_inst_mult_23_n316
*786 my_dp_mpy3_inst_mult_23_n315
*787 my_dp_mpy3_inst_mult_23_n314
*788 my_dp_mpy3_inst_mult_23_n313
*789 my_dp_mpy3_inst_mult_23_n312
*790 my_dp_mpy3_inst_mult_23_n311
*791 my_dp_mpy3_inst_mult_23_n310
*792 my_dp_mpy3_inst_mult_23_n309
*793 my_dp_mpy3_inst_mult_23_n308
*794 my_dp_mpy3_inst_mult_23_n307
*795 my_dp_mpy3_inst_mult_23_n306
*796 my_dp_mpy3_inst_mult_23_n305
*797 my_dp_mpy3_inst_mult_23_n304
*798 my_dp_mpy3_inst_mult_23_n303
*799 my_dp_mpy3_inst_mult_23_n302
*800 my_dp_mpy3_inst_mult_23_n301
*801 my_dp_mpy3_inst_mult_23_n298
*802 my_dp_mpy3_inst_mult_23_n297
*803 my_dp_mpy3_inst_mult_23_n296
*804 my_dp_mpy3_inst_mult_23_n295
*805 my_dp_mpy3_inst_mult_23_n294
*806 my_dp_mpy3_inst_mult_23_n293
*807 my_dp_mpy3_inst_mult_23_n290
*808 my_dp_mpy3_inst_mult_23_n289
*809 my_dp_mpy3_inst_mult_23_n288
*810 my_dp_mpy3_inst_mult_23_n287
*811 my_dp_mpy3_inst_mult_23_n286
*812 my_dp_mpy3_inst_mult_23_n285
*813 my_dp_mpy3_inst_mult_23_n284
*814 my_dp_mpy3_inst_mult_23_n283
*815 my_dp_mpy3_inst_mult_23_n282
*816 my_dp_mpy3_inst_mult_23_n281
*817 my_dp_mpy3_inst_mult_23_n280
*818 my_dp_mpy3_inst_mult_23_n279
*819 my_dp_mpy3_inst_mult_23_n278
*820 my_dp_mpy3_inst_mult_23_n277
*821 my_dp_mpy3_inst_mult_23_n276
*822 my_dp_mpy3_inst_mult_23_n275
*823 my_dp_mpy3_inst_mult_23_n143
*824 my_dp_mpy3_inst_mult_23_n142
*825 my_dp_mpy3_inst_mult_23_n141
*826 my_dp_mpy3_inst_mult_23_n140
*827 my_dp_mpy3_inst_mult_23_n139
*828 my_dp_mpy3_inst_mult_23_n138
*829 my_dp_mpy3_inst_mult_23_n135
*830 my_dp_mpy3_inst_mult_23_n134
*831 my_dp_mpy3_inst_mult_23_n133
*832 my_dp_mpy3_inst_mult_23_n132
*833 my_dp_mpy3_inst_mult_23_n131
*834 my_dp_mpy3_inst_mult_23_n130
*835 my_dp_mpy3_inst_mult_23_n129
*836 my_dp_mpy3_inst_mult_23_n128
*837 my_dp_mpy3_inst_mult_23_n126
*838 my_dp_mpy3_inst_mult_23_n125
*839 my_dp_mpy3_inst_mult_23_n124
*840 my_dp_mpy3_inst_mult_23_n123
*841 my_dp_mpy3_inst_mult_23_n122
*842 my_dp_mpy3_inst_mult_23_n121
*843 my_dp_mpy3_inst_mult_23_n120
*844 my_dp_mpy3_inst_mult_23_n119
*845 my_dp_mpy3_inst_mult_23_n118
*846 my_dp_mpy3_inst_mult_23_n116
*847 my_dp_mpy3_inst_mult_23_n115
*848 my_dp_mpy3_inst_mult_23_n114
*849 my_dp_mpy3_inst_mult_23_n113
*850 my_dp_mpy3_inst_mult_23_n112
*851 my_dp_mpy3_inst_mult_23_n111
*852 my_dp_mpy3_inst_mult_23_n110
*853 my_dp_mpy3_inst_mult_23_n109
*854 my_dp_mpy3_inst_mult_23_n108
*855 my_dp_mpy3_inst_mult_23_n106
*856 my_dp_mpy3_inst_mult_23_n104
*857 my_dp_mpy3_inst_mult_23_n103
*858 my_dp_mpy3_inst_mult_23_n102
*859 my_dp_mpy3_inst_mult_23_n98
*860 my_dp_mpy3_inst_mult_23_n97
*861 my_dp_mpy3_inst_mult_23_n81
*862 my_dp_mpy3_inst_mult_23_n80
*863 my_dp_mpy3_inst_mult_23_n79
*864 my_dp_mpy3_inst_mult_23_n78
*865 my_dp_mpy3_inst_mult_23_n77
*866 my_dp_mpy3_inst_mult_23_n76
*867 my_dp_mpy3_inst_mult_23_n75
*868 my_dp_mpy3_inst_mult_23_n74
*869 my_dp_mpy3_inst_mult_23_n73
*870 my_dp_mpy3_inst_mult_23_n72
*871 my_dp_mpy3_inst_mult_23_n71
*872 my_dp_mpy3_inst_mult_23_n70
*873 my_dp_mpy3_inst_mult_23_n69
*874 my_dp_mpy3_inst_mult_23_n68
*875 my_dp_mpy3_inst_mult_23_n67
*876 my_dp_mpy3_inst_mult_23_n66
*877 my_dp_mpy3_inst_mult_23_n65
*878 my_dp_mpy3_inst_mult_23_n64
*879 my_dp_mpy3_inst_mult_23_n63
*880 my_dp_mpy3_inst_mult_23_n62
*881 my_dp_mpy3_inst_mult_23_n61
*882 my_dp_mpy3_inst_mult_23_n60
*883 my_dp_mpy3_inst_mult_23_n59
*884 my_dp_mpy3_inst_mult_23_n58
*885 my_dp_mpy3_inst_mult_23_n57
*886 my_dp_mpy3_inst_mult_23_n56
*887 my_dp_mpy3_inst_mult_23_n55
*888 my_dp_mpy3_inst_mult_23_n54
*889 my_dp_mpy3_inst_mult_23_n53
*890 my_dp_mpy3_inst_mult_23_n52
*891 my_dp_mpy3_inst_mult_23_n51
*892 my_dp_mpy3_inst_mult_23_n50
*893 my_dp_mpy3_inst_mult_23_n49
*894 my_dp_mpy3_inst_mult_23_n47
*895 my_dp_mpy3_inst_mult_23_n46
*896 my_dp_mpy3_inst_mult_23_n45
*897 my_dp_mpy3_inst_mult_23_n44
*898 my_dp_mpy3_inst_mult_23_n43
*899 my_dp_mpy3_inst_mult_23_n42
*900 my_dp_mpy3_inst_mult_23_n41
*901 my_dp_mpy3_inst_mult_23_n40
*902 my_dp_mpy3_inst_mult_23_n39
*903 my_dp_mpy3_inst_mult_23_n38
*904 my_dp_mpy3_inst_mult_23_n37
*905 my_dp_mpy3_inst_mult_23_n36
*906 my_dp_mpy3_inst_mult_23_n35
*907 my_dp_mpy3_inst_mult_23_n33
*908 my_dp_mpy3_inst_mult_23_n32
*909 my_dp_mpy3_inst_mult_23_n31
*910 my_dp_mpy3_inst_mult_23_n30
*911 my_dp_mpy3_inst_mult_23_n29
*912 my_dp_mpy3_inst_mult_23_n28
*913 my_dp_mpy3_inst_mult_23_n27
*914 my_dp_mpy3_inst_mult_23_n26
*915 my_dp_mpy3_inst_mult_23_n25
*916 my_dp_mpy3_inst_mult_23_n23
*917 my_dp_mpy3_inst_mult_23_n22
*918 my_dp_mpy3_inst_mult_23_n21
*919 my_dp_mpy3_inst_mult_23_n20
*920 my_dp_mpy3_inst_mult_23_n19
*921 my_dp_mpy3_inst_mult_23_n8
*922 my_dp_mpy3_inst_mult_23_n7
*923 my_dp_mpy3_inst_mult_23_n6
*924 my_dp_mpy3_inst_mult_23_n5
*925 my_dp_mpy3_inst_mult_23_n4
*926 my_dp_mpy3_inst_mult_23_n3
*927 my_dp_mpy4_inst_mult_23_n374
*928 my_dp_mpy4_inst_mult_23_n373
*929 my_dp_mpy4_inst_mult_23_n372
*930 my_dp_mpy4_inst_mult_23_n371
*931 my_dp_mpy4_inst_mult_23_n370
*932 my_dp_mpy4_inst_mult_23_n369
*933 my_dp_mpy4_inst_mult_23_n368
*934 my_dp_mpy4_inst_mult_23_n367
*935 my_dp_mpy4_inst_mult_23_n366
*936 my_dp_mpy4_inst_mult_23_n365
*937 my_dp_mpy4_inst_mult_23_n364
*938 my_dp_mpy4_inst_mult_23_n363
*939 my_dp_mpy4_inst_mult_23_n362
*940 my_dp_mpy4_inst_mult_23_n361
*941 my_dp_mpy4_inst_mult_23_n360
*942 my_dp_mpy4_inst_mult_23_n359
*943 my_dp_mpy4_inst_mult_23_n358
*944 my_dp_mpy4_inst_mult_23_n357
*945 my_dp_mpy4_inst_mult_23_n356